107
# CELL(abcABC):   10.81873    10.81873    10.81873    90.00000    90.00000    90.00000  Step:           0  Bead:       0 positions{angstrom}  cell{angstrom}
      Cu  0.00000e+00  0.00000e+00  0.00000e+00
      Cu  0.00000e+00  1.80312e+00  1.80312e+00
      Cu  1.80312e+00  0.00000e+00  1.80312e+00
      Cu  1.80312e+00  1.80312e+00  0.00000e+00
      Cu  0.00000e+00  0.00000e+00  3.60624e+00
      Cu  0.00000e+00  1.80312e+00  5.40937e+00
      Cu  1.80312e+00  0.00000e+00  5.40937e+00
      Cu  1.80312e+00  1.80312e+00  3.60624e+00
      Cu  0.00000e+00  0.00000e+00  7.21249e+00
      Cu  0.00000e+00  1.80312e+00  9.01561e+00
      Cu  1.80312e+00  0.00000e+00  9.01561e+00
      Cu  1.80312e+00  1.80312e+00  7.21249e+00
      Cu  0.00000e+00  3.60624e+00  0.00000e+00
      Cu  0.00000e+00  5.40937e+00  1.80312e+00
      Cu  1.80312e+00  3.60624e+00  1.80312e+00
      Cu  1.80312e+00  5.40937e+00  0.00000e+00
      Cu  0.00000e+00  3.60624e+00  3.60624e+00
      Cu  0.00000e+00  5.40937e+00  5.40937e+00
      Cu  1.80312e+00  3.60624e+00  5.40937e+00
      Cu  1.80312e+00  5.40937e+00  3.60624e+00
      Cu  0.00000e+00  3.60624e+00  7.21249e+00
      Cu  0.00000e+00  5.40937e+00  9.01561e+00
      Cu  1.80312e+00  3.60624e+00  9.01561e+00
      Cu  1.80312e+00  5.40937e+00  7.21249e+00
      Cu  0.00000e+00  7.21249e+00  0.00000e+00
      Cu  0.00000e+00  9.01561e+00  1.80312e+00
      Cu  1.80312e+00  7.21249e+00  1.80312e+00
      Cu  1.80312e+00  9.01561e+00  0.00000e+00
      Cu  0.00000e+00  7.21249e+00  3.60624e+00
      Cu  0.00000e+00  9.01561e+00  5.40937e+00
      Cu  1.80312e+00  7.21249e+00  5.40937e+00
      Cu  1.80312e+00  9.01561e+00  3.60624e+00
      Cu  0.00000e+00  7.21249e+00  7.21249e+00
      Cu  0.00000e+00  9.01561e+00  9.01561e+00
      Cu  1.80312e+00  7.21249e+00  9.01561e+00
      Cu  1.80312e+00  9.01561e+00  7.21249e+00
      Cu  3.60624e+00  0.00000e+00  0.00000e+00
      Cu  3.60624e+00  1.80312e+00  1.80312e+00
      Cu  5.40937e+00  0.00000e+00  1.80312e+00
      Cu  5.40937e+00  1.80312e+00  0.00000e+00
      Cu  3.60624e+00  0.00000e+00  3.60624e+00
      Cu  3.60624e+00  1.80312e+00  5.40937e+00
      Cu  5.40937e+00  0.00000e+00  5.40937e+00
      Cu  5.40937e+00  1.80312e+00  3.60624e+00
      Cu  3.60624e+00  0.00000e+00  7.21249e+00
      Cu  3.60624e+00  1.80312e+00  9.01561e+00
      Cu  5.40937e+00  0.00000e+00  9.01561e+00
      Cu  5.40937e+00  1.80312e+00  7.21249e+00
      Cu  3.60624e+00  3.60624e+00  0.00000e+00
      Cu  3.60624e+00  5.40937e+00  1.80312e+00
      Cu  5.40937e+00  3.60624e+00  1.80312e+00
      Cu  5.40937e+00  5.40937e+00  0.00000e+00
      Cu  3.60624e+00  3.60624e+00  3.60624e+00
      Cu  5.40937e+00  3.60624e+00  5.40937e+00
      Cu  5.40937e+00  5.40937e+00  3.60624e+00
      Cu  3.60624e+00  3.60624e+00  7.21249e+00
      Cu  3.60624e+00  5.40937e+00  9.01561e+00
      Cu  5.40937e+00  3.60624e+00  9.01561e+00
      Cu  5.40937e+00  5.40937e+00  7.21249e+00
      Cu  3.60624e+00  7.21249e+00  0.00000e+00
      Cu  3.60624e+00  9.01561e+00  1.80312e+00
      Cu  5.40937e+00  7.21249e+00  1.80312e+00
      Cu  5.40937e+00  9.01561e+00  0.00000e+00
      Cu  3.60624e+00  7.21249e+00  3.60624e+00
      Cu  3.60624e+00  9.01561e+00  5.40937e+00
      Cu  5.40937e+00  7.21249e+00  5.40937e+00
      Cu  5.40937e+00  9.01561e+00  3.60624e+00
      Cu  3.60624e+00  7.21249e+00  7.21249e+00
      Cu  3.60624e+00  9.01561e+00  9.01561e+00
      Cu  5.40937e+00  7.21249e+00  9.01561e+00
      Cu  5.40937e+00  9.01561e+00  7.21249e+00
      Cu  7.21249e+00  0.00000e+00  0.00000e+00
      Cu  7.21249e+00  1.80312e+00  1.80312e+00
      Cu  9.01561e+00  0.00000e+00  1.80312e+00
      Cu  9.01561e+00  1.80312e+00  0.00000e+00
      Cu  7.21249e+00  0.00000e+00  3.60624e+00
      Cu  7.21249e+00  1.80312e+00  5.40937e+00
      Cu  9.01561e+00  0.00000e+00  5.40937e+00
      Cu  9.01561e+00  1.80312e+00  3.60624e+00
      Cu  7.21249e+00  0.00000e+00  7.21249e+00
      Cu  7.21249e+00  1.80312e+00  9.01561e+00
      Cu  9.01561e+00  0.00000e+00  9.01561e+00
      Cu  9.01561e+00  1.80312e+00  7.21249e+00
      Cu  7.21249e+00  3.60624e+00  0.00000e+00
      Cu  7.21249e+00  5.40937e+00  1.80312e+00
      Cu  9.01561e+00  3.60624e+00  1.80312e+00
      Cu  9.01561e+00  5.40937e+00  0.00000e+00
      Cu  7.21249e+00  3.60624e+00  3.60624e+00
      Cu  7.21249e+00  5.40937e+00  5.40937e+00
      Cu  9.01561e+00  3.60624e+00  5.40937e+00
      Cu  9.01561e+00  5.40937e+00  3.60624e+00
      Cu  7.21249e+00  3.60624e+00  7.21249e+00
      Cu  7.21249e+00  5.40937e+00  9.01561e+00
      Cu  9.01561e+00  3.60624e+00  9.01561e+00
      Cu  9.01561e+00  5.40937e+00  7.21249e+00
      Cu  7.21249e+00  7.21249e+00  0.00000e+00
      Cu  7.21249e+00  9.01561e+00  1.80312e+00
      Cu  9.01561e+00  7.21249e+00  1.80312e+00
      Cu  9.01561e+00  9.01561e+00  0.00000e+00
      Cu  7.21249e+00  7.21249e+00  3.60624e+00
      Cu  7.21249e+00  9.01561e+00  5.40937e+00
      Cu  9.01561e+00  7.21249e+00  5.40937e+00
      Cu  9.01561e+00  9.01561e+00  3.60624e+00
      Cu  7.21249e+00  7.21249e+00  7.21249e+00
      Cu  7.21249e+00  9.01561e+00  9.01561e+00
      Cu  9.01561e+00  7.21249e+00  9.01561e+00
      Cu  9.01561e+00  9.01561e+00  7.21249e+00
107
# CELL(abcABC):   10.81873    10.81873    10.81873    90.00000    90.00000    90.00000  Step:           1  Bead:       0 positions{angstrom}  cell{angstrom}
      Cu -3.60773e-06 -3.60773e-06 -3.60773e-06
      Cu -3.60773e-06  1.80313e+00  1.80313e+00
      Cu  1.80313e+00 -3.60773e-06  1.80313e+00
      Cu  1.80313e+00  1.80313e+00 -3.60773e-06
      Cu -3.60773e-06 -3.60773e-06  3.60624e+00
      Cu -1.47342e-02  1.78840e+00  5.40937e+00
      Cu  1.79794e+00 -3.60774e-06  5.40937e+00
      Cu  1.77918e+00  1.75523e+00  3.58229e+00
      Cu -3.60774e-06 -3.60774e-06  7.21249e+00
      Cu -3.60773e-06  1.80313e+00  9.01561e+00
      Cu  1.80313e+00 -3.60773e-06  9.01561e+00
      Cu  1.77918e+00  1.75523e+00  7.23644e+00
      Cu -3.60773e-06  3.60624e+00 -3.60773e-06
      Cu -1.47342e-02  5.40937e+00  1.78840e+00
      Cu  1.77918e+00  3.58229e+00  1.75523e+00
      Cu  1.79794e+00  5.40937e+00 -3.60774e-06
      Cu -4.79015e-02  3.58229e+00  3.58229e+00
      Cu -1.78844e-01  5.40937e+00  5.40937e+00
      Cu  1.80313e+00  3.60624e+00  5.40937e+00
      Cu  1.80313e+00  5.40937e+00  3.60624e+00
      Cu -4.79015e-02  3.58229e+00  7.23644e+00
      Cu -1.47342e-02  5.40937e+00  9.03034e+00
      Cu  1.77918e+00  3.58229e+00  9.06351e+00
      Cu  1.80313e+00  5.40937e+00  7.21249e+00
      Cu -3.60774e-06  7.21249e+00 -3.60774e-06
      Cu -3.60773e-06  9.01561e+00  1.80313e+00
      Cu  1.77918e+00  7.23644e+00  1.75523e+00
      Cu  1.80313e+00  9.01561e+00 -3.60773e-06
      Cu -4.79015e-02  7.23644e+00  3.58229e+00
      Cu -1.47342e-02  9.03034e+00  5.40937e+00
      Cu  1.80313e+00  7.21249e+00  5.40937e+00
      Cu  1.77918e+00  9.06351e+00  3.58229e+00
      Cu -4.79015e-02  7.23644e+00  7.23644e+00
      Cu -3.60773e-06  9.01561e+00  9.01561e+00
      Cu  1.77918e+00  7.23644e+00  9.06351e+00
      Cu  1.77918e+00  9.06351e+00  7.23644e+00
      Cu  3.60624e+00 -3.60773e-06 -3.60773e-06
      Cu  3.60624e+00  1.78840e+00  1.78840e+00
      Cu  5.40937e+00 -3.60774e-06  1.80313e+00
      Cu  5.40937e+00  1.80313e+00 -3.60774e-06
      Cu  3.60624e+00 -3.60773e-06  3.60106e+00
      Cu  3.60624e+00  1.62428e+00  5.40937e+00
      Cu  5.41455e+00 -3.60774e-06  5.40937e+00
      Cu  5.43332e+00  1.75523e+00  3.58229e+00
      Cu  3.60624e+00 -3.60774e-06  7.21767e+00
      Cu  3.60624e+00  1.78840e+00  9.03034e+00
      Cu  5.40937e+00 -3.60774e-06  9.01561e+00
      Cu  5.43332e+00  1.75523e+00  7.23644e+00
      Cu  3.60624e+00  3.60106e+00 -3.60773e-06
      Cu  3.60624e+00  5.40937e+00  1.62428e+00
      Cu  5.43332e+00  3.58229e+00  1.75523e+00
      Cu  5.41455e+00  5.40937e+00 -3.60774e-06
      Cu  3.60624e+00  3.60624e+00  3.60624e+00
      Cu  5.40937e+00  3.60624e+00  5.40937e+00
      Cu  5.40937e+00  5.40937e+00  3.60624e+00
      Cu  3.60624e+00  3.60624e+00  7.21249e+00
      Cu  3.60624e+00  5.40937e+00  9.19446e+00
      Cu  5.43332e+00  3.58229e+00  9.06351e+00
      Cu  5.40937e+00  5.40937e+00  7.21249e+00
      Cu  3.60624e+00  7.21767e+00 -3.60774e-06
      Cu  3.60624e+00  9.03034e+00  1.78840e+00
      Cu  5.43332e+00  7.23644e+00  1.75523e+00
      Cu  5.40937e+00  9.01561e+00 -3.60774e-06
      Cu  3.60624e+00  7.21249e+00  3.60624e+00
      Cu  3.60624e+00  9.19446e+00  5.40937e+00
      Cu  5.40937e+00  7.21249e+00  5.40937e+00
      Cu  5.43332e+00  9.06351e+00  3.58229e+00
      Cu  3.60624e+00  7.21249e+00  7.21249e+00
      Cu  3.60624e+00  9.03034e+00  9.03034e+00
      Cu  5.43332e+00  7.23644e+00  9.06351e+00
      Cu  5.43332e+00  9.06351e+00  7.23644e+00
      Cu  7.21249e+00 -3.60774e-06 -3.60774e-06
      Cu  7.21249e+00  1.80313e+00  1.80313e+00
      Cu  9.01561e+00 -3.60773e-06  1.80313e+00
      Cu  9.01561e+00  1.80313e+00 -3.60773e-06
      Cu  7.21249e+00 -3.60774e-06  3.60624e+00
      Cu  7.22722e+00  1.78840e+00  5.40937e+00
      Cu  9.01561e+00 -3.60774e-06  5.40937e+00
      Cu  9.01561e+00  1.80313e+00  3.60624e+00
      Cu  7.21249e+00 -3.60774e-06  7.21249e+00
      Cu  7.21249e+00  1.80313e+00  9.01561e+00
      Cu  9.01561e+00 -3.60773e-06  9.01561e+00
      Cu  9.01561e+00  1.80313e+00  7.21249e+00
      Cu  7.21249e+00  3.60624e+00 -3.60774e-06
      Cu  7.22722e+00  5.40937e+00  1.78840e+00
      Cu  9.01561e+00  3.60624e+00  1.80313e+00
      Cu  9.01561e+00  5.40937e+00 -3.60774e-06
      Cu  7.26039e+00  3.58229e+00  3.58229e+00
      Cu  7.39133e+00  5.40937e+00  5.40937e+00
      Cu  9.01561e+00  3.60106e+00  5.40937e+00
      Cu  9.01561e+00  5.40937e+00  3.60106e+00
      Cu  7.26039e+00  3.58229e+00  7.23644e+00
      Cu  7.22722e+00  5.40937e+00  9.03034e+00
      Cu  9.01561e+00  3.60624e+00  9.01561e+00
      Cu  9.01561e+00  5.40937e+00  7.21767e+00
      Cu  7.21249e+00  7.21249e+00 -3.60774e-06
      Cu  7.21249e+00  9.01561e+00  1.80313e+00
      Cu  9.01561e+00  7.21249e+00  1.80313e+00
      Cu  9.01561e+00  9.01561e+00 -3.60773e-06
      Cu  7.26039e+00  7.23644e+00  3.58229e+00
      Cu  7.22722e+00  9.03034e+00  5.40937e+00
      Cu  9.01561e+00  7.21767e+00  5.40937e+00
      Cu  9.01561e+00  9.01561e+00  3.60624e+00
      Cu  7.26039e+00  7.23644e+00  7.23644e+00
      Cu  7.21249e+00  9.01561e+00  9.01561e+00
      Cu  9.01561e+00  7.21249e+00  9.01561e+00
      Cu  9.01561e+00  9.01561e+00  7.21249e+00
107
# CELL(abcABC):   10.81873    10.81873    10.81873    90.00000    90.00000    90.00000  Step:           2  Bead:       0 positions{angstrom}  cell{angstrom}
      Cu -7.59778e-08 -3.57409e-06 -3.57409e-06
      Cu -2.29655e-05  1.80311e+00  1.80311e+00
      Cu  1.80312e+00 -3.57344e-06  1.80309e+00
      Cu  1.80312e+00  1.80309e+00 -3.57344e-06
      Cu -3.45778e-05 -3.57344e-06  3.60624e+00
      Cu -1.46215e-02  1.78851e+00  5.40937e+00
      Cu  1.79790e+00 -3.57278e-06  5.40937e+00
      Cu  1.77936e+00  1.75561e+00  3.58248e+00
      Cu -3.45778e-05 -3.57344e-06  7.21249e+00
      Cu -2.29653e-05  1.80311e+00  9.01563e+00
      Cu  1.80312e+00 -3.57344e-06  9.01565e+00
      Cu  1.77936e+00  1.75561e+00  7.23625e+00
      Cu -3.45778e-05  3.60624e+00 -3.57344e-06
      Cu -1.46215e-02  5.40937e+00  1.78851e+00
      Cu  1.77936e+00  3.58248e+00  1.75561e+00
      Cu  1.79790e+00  5.40937e+00 -3.57278e-06
      Cu -4.75227e-02  3.58248e+00  3.58248e+00
      Cu -1.77439e-01  5.40937e+00  5.40937e+00
      Cu  1.80309e+00  3.60620e+00  5.40937e+00
      Cu  1.80309e+00  5.40937e+00  3.60620e+00
      Cu -4.75227e-02  3.58248e+00  7.23625e+00
      Cu -1.46215e-02  5.40937e+00  9.03023e+00
      Cu  1.77936e+00  3.58248e+00  9.06313e+00
      Cu  1.80309e+00  5.40937e+00  7.21253e+00
      Cu -3.45778e-05  7.21249e+00 -3.57344e-06
      Cu -2.29653e-05  9.01563e+00  1.80311e+00
      Cu  1.77936e+00  7.23625e+00  1.75561e+00
      Cu  1.80312e+00  9.01565e+00 -3.57344e-06
      Cu -4.75227e-02  7.23625e+00  3.58248e+00
      Cu -1.46215e-02  9.03023e+00  5.40937e+00
      Cu  1.80309e+00  7.21253e+00  5.40937e+00
      Cu  1.77936e+00  9.06313e+00  3.58248e+00
      Cu -4.75227e-02  7.23625e+00  7.23625e+00
      Cu -2.29650e-05  9.01563e+00  9.01563e+00
      Cu  1.77936e+00  7.23625e+00  9.06313e+00
      Cu  1.77936e+00  9.06313e+00  7.23625e+00
      Cu  3.60624e+00 -3.57363e-06 -3.57363e-06
      Cu  3.60624e+00  1.78851e+00  1.78851e+00
      Cu  5.40937e+00 -3.57344e-06  1.80309e+00
      Cu  5.40937e+00  1.80309e+00 -3.57344e-06
      Cu  3.60624e+00 -3.57278e-06  3.60101e+00
      Cu  3.60624e+00  1.62569e+00  5.40937e+00
      Cu  5.41460e+00 -3.57279e-06  5.40937e+00
      Cu  5.43313e+00  1.75561e+00  3.58248e+00
      Cu  3.60624e+00 -3.57278e-06  7.21772e+00
      Cu  3.60624e+00  1.78851e+00  9.03023e+00
      Cu  5.40937e+00 -3.57344e-06  9.01565e+00
      Cu  5.43313e+00  1.75561e+00  7.23625e+00
      Cu  3.60624e+00  3.60101e+00 -3.57278e-06
      Cu  3.60624e+00  5.40937e+00  1.62569e+00
      Cu  5.43313e+00  3.58248e+00  1.75561e+00
      Cu  5.41460e+00  5.40937e+00 -3.57279e-06
      Cu  3.60624e+00  3.60620e+00  3.60620e+00
      Cu  5.40941e+00  3.60620e+00  5.40937e+00
      Cu  5.40941e+00  5.40937e+00  3.60620e+00
      Cu  3.60624e+00  3.60620e+00  7.21253e+00
      Cu  3.60624e+00  5.40937e+00  9.19305e+00
      Cu  5.43313e+00  3.58248e+00  9.06313e+00
      Cu  5.40941e+00  5.40937e+00  7.21253e+00
      Cu  3.60624e+00  7.21772e+00 -3.57278e-06
      Cu  3.60624e+00  9.03023e+00  1.78851e+00
      Cu  5.43313e+00  7.23625e+00  1.75561e+00
      Cu  5.40937e+00  9.01565e+00 -3.57344e-06
      Cu  3.60624e+00  7.21253e+00  3.60620e+00
      Cu  3.60624e+00  9.19305e+00  5.40937e+00
      Cu  5.40941e+00  7.21253e+00  5.40937e+00
      Cu  5.43313e+00  9.06313e+00  3.58248e+00
      Cu  3.60624e+00  7.21253e+00  7.21253e+00
      Cu  3.60624e+00  9.03023e+00  9.03023e+00
      Cu  5.43313e+00  7.23625e+00  9.06313e+00
      Cu  5.43313e+00  9.06313e+00  7.23625e+00
      Cu  7.21249e+00 -3.57409e-06 -3.57409e-06
      Cu  7.21251e+00  1.80311e+00  1.80311e+00
      Cu  9.01561e+00 -3.57409e-06  1.80313e+00
      Cu  9.01561e+00  1.80313e+00 -3.57409e-06
      Cu  7.21252e+00 -3.57344e-06  3.60624e+00
      Cu  7.22711e+00  1.78851e+00  5.40937e+00
      Cu  9.01561e+00 -3.57363e-06  5.40937e+00
      Cu  9.01561e+00  1.80309e+00  3.60624e+00
      Cu  7.21252e+00 -3.57345e-06  7.21249e+00
      Cu  7.21251e+00  1.80311e+00  9.01563e+00
      Cu  9.01561e+00 -3.57409e-06  9.01561e+00
      Cu  9.01561e+00  1.80309e+00  7.21249e+00
      Cu  7.21252e+00  3.60624e+00 -3.57344e-06
      Cu  7.22711e+00  5.40937e+00  1.78851e+00
      Cu  9.01561e+00  3.60624e+00  1.80309e+00
      Cu  9.01561e+00  5.40937e+00 -3.57363e-06
      Cu  7.26001e+00  3.58248e+00  3.58248e+00
      Cu  7.38992e+00  5.40937e+00  5.40937e+00
      Cu  9.01561e+00  3.60101e+00  5.40937e+00
      Cu  9.01561e+00  5.40937e+00  3.60101e+00
      Cu  7.26001e+00  3.58248e+00  7.23625e+00
      Cu  7.22711e+00  5.40937e+00  9.03023e+00
      Cu  9.01561e+00  3.60624e+00  9.01565e+00
      Cu  9.01561e+00  5.40937e+00  7.21772e+00
      Cu  7.21252e+00  7.21249e+00 -3.57345e-06
      Cu  7.21251e+00  9.01563e+00  1.80311e+00
      Cu  9.01561e+00  7.21249e+00  1.80309e+00
      Cu  9.01561e+00  9.01561e+00 -3.57409e-06
      Cu  7.26001e+00  7.23625e+00  3.58248e+00
      Cu  7.22711e+00  9.03023e+00  5.40937e+00
      Cu  9.01561e+00  7.21772e+00  5.40937e+00
      Cu  9.01561e+00  9.01565e+00  3.60624e+00
      Cu  7.26001e+00  7.23625e+00  7.23625e+00
      Cu  7.21251e+00  9.01563e+00  9.01563e+00
      Cu  9.01561e+00  7.21249e+00  9.01565e+00
      Cu  9.01561e+00  9.01565e+00  7.21249e+00
107
# CELL(abcABC):   10.81873    10.81873    10.81873    90.00000    90.00000    90.00000  Step:           3  Bead:       0 positions{angstrom}  cell{angstrom}
      Cu -1.02854e-05 -3.53973e-06 -3.53973e-06
      Cu -5.02818e-05  1.80308e+00  1.80308e+00
      Cu  1.80310e+00 -3.54145e-06  1.80306e+00
      Cu  1.80310e+00  1.80306e+00 -3.54145e-06
      Cu -6.95338e-05 -3.54145e-06  3.60622e+00
      Cu -1.45155e-02  1.78861e+00  5.40937e+00
      Cu  1.79791e+00 -3.54280e-06  5.40937e+00
      Cu  1.77953e+00  1.75599e+00  3.58265e+00
      Cu -6.95343e-05 -3.54146e-06  7.21251e+00
      Cu -5.02823e-05  1.80308e+00  9.01566e+00
      Cu  1.80310e+00 -3.54145e-06  9.01568e+00
      Cu  1.77953e+00  1.75599e+00  7.23608e+00
      Cu -6.95338e-05  3.60622e+00 -3.54145e-06
      Cu -1.45155e-02  5.40937e+00  1.78861e+00
      Cu  1.77953e+00  3.58265e+00  1.75599e+00
      Cu  1.79791e+00  5.40937e+00 -3.54280e-06
      Cu -4.71401e-02  3.58265e+00  3.58265e+00
      Cu -1.76105e-01  5.40937e+00  5.40937e+00
      Cu  1.80301e+00  3.60613e+00  5.40937e+00
      Cu  1.80301e+00  5.40937e+00  3.60613e+00
      Cu -4.71401e-02  3.58265e+00  7.23608e+00
      Cu -1.45156e-02  5.40937e+00  9.03013e+00
      Cu  1.77953e+00  3.58265e+00  9.06275e+00
      Cu  1.80301e+00  5.40937e+00  7.21260e+00
      Cu -6.95343e-05  7.21251e+00 -3.54146e-06
      Cu -5.02823e-05  9.01566e+00  1.80308e+00
      Cu  1.77953e+00  7.23608e+00  1.75599e+00
      Cu  1.80310e+00  9.01568e+00 -3.54145e-06
      Cu -4.71401e-02  7.23608e+00  3.58265e+00
      Cu -1.45156e-02  9.03013e+00  5.40937e+00
      Cu  1.80301e+00  7.21260e+00  5.40937e+00
      Cu  1.77953e+00  9.06275e+00  3.58265e+00
      Cu -4.71401e-02  7.23608e+00  7.23608e+00
      Cu -5.02829e-05  9.01566e+00  9.01566e+00
      Cu  1.77953e+00  7.23608e+00  9.06275e+00
      Cu  1.77953e+00  9.06275e+00  7.23608e+00
      Cu  3.60624e+00 -3.54090e-06 -3.54090e-06
      Cu  3.60624e+00  1.78861e+00  1.78861e+00
      Cu  5.40939e+00 -3.54146e-06  1.80306e+00
      Cu  5.40939e+00  1.80306e+00 -3.54146e-06
      Cu  3.60624e+00 -3.54280e-06  3.60103e+00
      Cu  3.60624e+00  1.62702e+00  5.40937e+00
      Cu  5.41458e+00 -3.54281e-06  5.40937e+00
      Cu  5.43296e+00  1.75599e+00  3.58265e+00
      Cu  3.60624e+00 -3.54280e-06  7.21770e+00
      Cu  3.60624e+00  1.78861e+00  9.03013e+00
      Cu  5.40939e+00 -3.54146e-06  9.01568e+00
      Cu  5.43296e+00  1.75599e+00  7.23608e+00
      Cu  3.60624e+00  3.60103e+00 -3.54280e-06
      Cu  3.60624e+00  5.40937e+00  1.62702e+00
      Cu  5.43296e+00  3.58265e+00  1.75599e+00
      Cu  5.41458e+00  5.40937e+00 -3.54281e-06
      Cu  3.60624e+00  3.60613e+00  3.60613e+00
      Cu  5.40948e+00  3.60613e+00  5.40937e+00
      Cu  5.40948e+00  5.40937e+00  3.60613e+00
      Cu  3.60624e+00  3.60613e+00  7.21260e+00
      Cu  3.60624e+00  5.40937e+00  9.19172e+00
      Cu  5.43296e+00  3.58265e+00  9.06275e+00
      Cu  5.40948e+00  5.40937e+00  7.21260e+00
      Cu  3.60624e+00  7.21770e+00 -3.54280e-06
      Cu  3.60624e+00  9.03013e+00  1.78861e+00
      Cu  5.43296e+00  7.23608e+00  1.75599e+00
      Cu  5.40939e+00  9.01568e+00 -3.54146e-06
      Cu  3.60624e+00  7.21260e+00  3.60613e+00
      Cu  3.60624e+00  9.19172e+00  5.40937e+00
      Cu  5.40948e+00  7.21260e+00  5.40937e+00
      Cu  5.43296e+00  9.06275e+00  3.58265e+00
      Cu  3.60624e+00  7.21260e+00  7.21260e+00
      Cu  3.60624e+00  9.03013e+00  9.03013e+00
      Cu  5.43296e+00  7.23608e+00  9.06275e+00
      Cu  5.43296e+00  9.06275e+00  7.23608e+00
      Cu  7.21250e+00 -3.53973e-06 -3.53973e-06
      Cu  7.21254e+00  1.80308e+00  1.80308e+00
      Cu  9.01561e+00 -3.53973e-06  1.80312e+00
      Cu  9.01561e+00  1.80312e+00 -3.53973e-06
      Cu  7.21255e+00 -3.54146e-06  3.60622e+00
      Cu  7.22700e+00  1.78861e+00  5.40937e+00
      Cu  9.01561e+00 -3.54090e-06  5.40937e+00
      Cu  9.01561e+00  1.80306e+00  3.60622e+00
      Cu  7.21255e+00 -3.54146e-06  7.21251e+00
      Cu  7.21254e+00  1.80308e+00  9.01566e+00
      Cu  9.01561e+00 -3.53973e-06  9.01562e+00
      Cu  9.01561e+00  1.80306e+00  7.21251e+00
      Cu  7.21255e+00  3.60622e+00 -3.54146e-06
      Cu  7.22700e+00  5.40937e+00  1.78861e+00
      Cu  9.01561e+00  3.60622e+00  1.80306e+00
      Cu  9.01561e+00  5.40937e+00 -3.54090e-06
      Cu  7.25963e+00  3.58265e+00  3.58265e+00
      Cu  7.38859e+00  5.40937e+00  5.40937e+00
      Cu  9.01561e+00  3.60103e+00  5.40937e+00
      Cu  9.01561e+00  5.40937e+00  3.60103e+00
      Cu  7.25963e+00  3.58265e+00  7.23608e+00
      Cu  7.22700e+00  5.40937e+00  9.03013e+00
      Cu  9.01561e+00  3.60622e+00  9.01568e+00
      Cu  9.01561e+00  5.40937e+00  7.21770e+00
      Cu  7.21255e+00  7.21251e+00 -3.54146e-06
      Cu  7.21254e+00  9.01566e+00  1.80308e+00
      Cu  9.01561e+00  7.21251e+00  1.80306e+00
      Cu  9.01561e+00  9.01562e+00 -3.53973e-06
      Cu  7.25963e+00  7.23608e+00  3.58265e+00
      Cu  7.22700e+00  9.03013e+00  5.40937e+00
      Cu  9.01561e+00  7.21770e+00  5.40937e+00
      Cu  9.01561e+00  9.01568e+00  3.60622e+00
      Cu  7.25963e+00  7.23608e+00  7.23608e+00
      Cu  7.21254e+00  9.01566e+00  9.01566e+00
      Cu  9.01561e+00  7.21251e+00  9.01568e+00
      Cu  9.01561e+00  9.01568e+00  7.21251e+00
